Version 4
SHEET 1 2036 680
WIRE 1728 -128 1664 -128
WIRE 1856 -128 1808 -128
WIRE 912 -112 848 -112
WIRE 1040 -112 992 -112
WIRE 1664 -32 1664 -128
WIRE 1696 -32 1664 -32
WIRE 1856 -32 1856 -128
WIRE 1856 -32 1760 -32
WIRE 848 0 848 -112
WIRE 880 0 848 0
WIRE 1040 0 1040 -112
WIRE 1040 0 944 0
WIRE 1808 0 1776 0
WIRE 1776 16 1776 0
WIRE 1776 16 1728 16
WIRE 1152 64 912 64
WIRE 1728 64 1728 16
WIRE 912 80 912 64
WIRE 1552 80 1504 80
WIRE 1664 80 1664 -32
WIRE 1664 80 1632 80
WIRE 1696 80 1664 80
WIRE 736 96 688 96
WIRE 848 96 848 0
WIRE 848 96 816 96
WIRE 880 96 848 96
WIRE 1856 96 1856 -32
WIRE 1856 96 1760 96
WIRE 1888 96 1856 96
WIRE 1968 96 1952 96
WIRE -80 112 -176 112
WIRE 48 112 -16 112
WIRE 288 112 48 112
WIRE 400 112 368 112
WIRE 1040 112 1040 0
WIRE 1040 112 944 112
WIRE 1696 112 1664 112
WIRE 48 128 48 112
WIRE 880 128 848 128
WIRE 1152 128 1152 64
WIRE 1968 128 1968 96
WIRE -176 144 -176 112
WIRE 400 144 400 112
WIRE 1664 208 1664 112
WIRE 848 224 848 128
WIRE -176 256 -176 224
WIRE 48 256 48 208
WIRE 48 256 -176 256
WIRE 400 256 400 208
WIRE 400 256 48 256
WIRE 48 288 48 256
FLAG 48 288 0
FLAG 48 112 High-pass
FLAG 400 112 Output
FLAG 848 224 0
FLAG 1152 208 0
FLAG 624 176 0
FLAG 1664 208 0
FLAG 1440 160 0
FLAG 1808 80 0
FLAG 1968 208 0
FLAG 1728 128 0
SYMBOL res 32 112 R0
SYMATTR InstName R1
SYMATTR Value 20k
SYMBOL cap -16 96 R90
WINDOW 0 0 32 VBottom 2
WINDOW 3 32 32 VTop 2
SYMATTR InstName C1
SYMATTR Value 2n
SYMBOL res 384 96 R90
WINDOW 0 0 56 VBottom 2
WINDOW 3 32 56 VTop 2
SYMATTR InstName R2
SYMATTR Value 10k
SYMBOL cap 384 144 R0
SYMATTR InstName C2
SYMATTR Value 1n
SYMBOL voltage -176 128 R0
WINDOW 123 24 44 Left 2
WINDOW 39 0 0 Left 0
SYMATTR Value2 AC 1
SYMATTR InstName Vin
SYMATTR Value ""
SYMBOL cap 688 80 R90
WINDOW 0 0 32 VBottom 2
WINDOW 3 32 32 VTop 2
SYMATTR InstName C3
SYMATTR Value 2n
SYMBOL res 832 80 R90
WINDOW 0 0 56 VBottom 2
WINDOW 3 32 56 VTop 2
SYMATTR InstName R3
SYMATTR Value 10k
SYMBOL OpAmps\\UniversalOpAmp 912 112 R0
SYMATTR InstName U2
SYMBOL cap 944 -16 R90
WINDOW 0 0 32 VBottom 2
WINDOW 3 32 32 VTop 2
SYMATTR InstName C4
SYMATTR Value 1n
SYMBOL res 1008 -128 R90
WINDOW 0 0 56 VBottom 2
WINDOW 3 32 56 VTop 2
SYMATTR InstName R4
SYMATTR Value 20k
SYMBOL voltage 1152 112 R0
WINDOW 123 0 0 Left 0
WINDOW 39 0 0 Left 0
SYMATTR InstName V1
SYMATTR Value 7
SYMBOL voltage 624 80 R0
WINDOW 123 -74 98 Left 2
WINDOW 39 0 0 Left 0
WINDOW 0 -68 13 Left 2
SYMATTR Value2 AC 1
SYMATTR InstName Vin1
SYMATTR Value ""
SYMBOL cap 1504 64 R90
WINDOW 0 0 32 VBottom 2
WINDOW 3 32 32 VTop 2
SYMATTR InstName C5
SYMATTR Value 2n
SYMBOL res 1648 64 R90
WINDOW 0 0 56 VBottom 2
WINDOW 3 32 56 VTop 2
SYMATTR InstName R5
SYMATTR Value 10k
SYMBOL OpAmps\\UniversalOpAmp 1728 96 R0
SYMATTR InstName U1
SYMBOL cap 1760 -48 R90
WINDOW 0 0 32 VBottom 2
WINDOW 3 32 32 VTop 2
SYMATTR InstName C6
SYMATTR Value 1n
SYMBOL res 1824 -144 R90
WINDOW 0 0 56 VBottom 2
WINDOW 3 32 56 VTop 2
SYMATTR InstName R6
SYMATTR Value 20k
SYMBOL voltage 1808 -16 R0
WINDOW 123 0 0 Left 0
WINDOW 39 0 0 Left 0
SYMATTR InstName V2
SYMATTR Value 7
SYMBOL voltage 1440 64 R0
WINDOW 123 -74 98 Left 2
WINDOW 39 0 0 Left 0
WINDOW 0 -68 13 Left 2
SYMATTR Value2 AC 1
SYMATTR InstName Vin2
SYMATTR Value ""
SYMBOL cap 1952 80 R90
WINDOW 0 0 32 VBottom 2
WINDOW 3 32 32 VTop 2
SYMATTR InstName C7
SYMATTR Value 10n
SYMBOL res 1952 112 R0
SYMATTR InstName R7
SYMATTR Value 30k
TEXT 248 -40 Left 2 ;f = 1/(2piRC)
TEXT 248 0 Left 2 !.ac lin 1000 1 50k
TEXT -408 -96 Left 2 !.param t_on=0.5*{period}
TEXT -408 -64 Left 2 !.param period=1/{frequency}
TEXT -408 -32 Left 2 !.param frequency=1000
